3arp_ligand
 OpenBabel09292301553D

 72 75  0  0  0  0  0  0  0  0999 V2000
   -5.9866   -0.9050   -0.8312 C   0  0  0  0  0  0  0  0  0  0  0  0
   -6.7778   -1.0322    0.4026 C   0  0  0  0  0  0  0  0  0  0  0  0
   -6.7193   -0.0803    1.3561 C   0  0  0  0  0  0  0  0  0  0  0  0
   -5.6825    0.9405    1.2402 C   0  0  0  0  0  3  0  0  0  0  0  0
   -5.1104    0.1259   -1.0035 C   0  0  0  0  0  0  0  0  0  0  0  0
   -4.6159    0.6676    0.2775 C   0  0  0  0  0  0  0  0  0  0  0  0
   -3.4065    1.2686    0.2258 C   0  0  0  0  0  0  0  0  0  0  0  0
   -3.1699    2.0724   -0.9724 C   0  0  0  0  0  0  0  0  0  0  0  0
   -3.9734    1.9546   -2.0533 C   0  0  0  0  0  0  0  0  0  0  0  0
   -5.1097    1.0942   -2.0574 N   0  0  0  0  0  0  0  0  0  0  0  0
  -18.6183    1.0486   -2.8110 C   0  0  0  0  0  0  0  0  0  0  0  0
  -17.8197    2.3045   -2.5311 C   0  0  1  0  0  3  0  0  0  0  0  0
  -16.7209    2.5871   -3.4100 N   0  0  0  0  0  0  0  0  0  0  0  0
  -16.9980    2.2630   -4.7847 C   0  0  0  0  0  0  0  0  0  0  0  0
  -17.7875    1.1975   -5.0324 C   0  0  0  0  0  0  0  0  0  0  0  0
  -18.8864    0.9249   -4.1364 C   0  0  0  0  0  0  0  0  0  0  0  0
  -19.6296    0.7274   -1.8081 C   0  0  0  0  0  0  0  0  0  0  0  0
  -20.2444    1.7517   -1.1653 C   0  0  0  0  0  0  0  0  0  0  0  0
  -19.8940    3.1281   -1.5187 C   0  0  0  0  0  0  0  0  0  0  0  0
  -18.7055    3.4233   -2.1128 C   0  0  0  0  0  0  0  0  0  0  0  0
  -15.4086    1.9206   -3.0569 C   0  0  0  0  0  0  0  0  0  0  0  0
  -14.8470    2.0358   -1.6486 C   0  0  0  0  0  0  0  0  0  0  0  0
  -14.0919    3.3457   -1.3998 C   0  0  0  0  0  0  0  0  0  0  0  0
  -13.1354    3.2647   -0.1996 C   0  0  0  0  0  0  0  0  0  0  0  0
  -11.9149    2.3311   -0.3393 C   0  0  0  0  0  0  0  0  0  0  0  0
  -10.9718    2.6758   -1.4977 C   0  0  0  0  0  0  0  0  0  0  0  0
   -9.7518    1.7451   -1.5125 C   0  0  0  0  0  0  0  0  0  0  0  0
   -8.7970    2.0448   -2.6778 C   0  0  0  0  0  0  0  0  0  0  0  0
   -7.5668    1.1800   -2.5646 C   0  0  0  0  0  0  0  0  0  0  0  0
   -6.3357    1.6859   -2.4268 C   0  0  0  0  0  0  0  0  0  0  0  0
   -3.6430    2.7299   -3.2999 C   0  0  0  0  0  0  0  0  0  0  0  0
  -16.2156    2.9013   -5.8955 C   0  0  0  0  0  0  0  0  0  0  0  0
   -2.2892    0.4931    0.5045 N   0  0  0  0  0  0  0  0  0  0  0  0
  -20.1221    1.3292   -4.6848 N   0  0  0  0  0  0  0  0  0  0  0  0
   -5.5376   -1.9068   -1.0719 H   0  0  0  0  0  0  0  0  0  0  0  0
   -7.4585   -1.8732    0.4823 H   0  0  0  0  0  0  0  0  0  0  0  0
   -7.3756   -0.0751    2.2166 H   0  0  0  0  0  0  0  0  0  0  0  0
   -6.0067    1.9793    1.3152 H   0  0  0  0  0  0  0  0  0  0  0  0
   -2.3274    2.7495   -0.9563 H   0  0  0  0  0  0  0  0  0  0  0  0
   -2.3111   -0.0790    1.3382 H   0  0  0  0  0  0  0  0  0  0  0  0
  -17.3545    0.3466   -5.5524 H   0  0  0  0  0  0  0  0  0  0  0  0
  -19.8114   -0.3070   -1.5590 H   0  0  0  0  0  0  0  0  0  0  0  0
  -20.9992    1.5715   -0.4154 H   0  0  0  0  0  0  0  0  0  0  0  0
  -20.6565    3.8830   -1.3385 H   0  0  0  0  0  0  0  0  0  0  0  0
  -18.5076    4.4207   -2.4733 H   0  0  0  0  0  0  0  0  0  0  0  0
  -14.6398    2.2848   -3.7506 H   0  0  0  0  0  0  0  0  0  0  0  0
  -15.5154    0.8443   -3.2616 H   0  0  0  0  0  0  0  0  0  0  0  0
  -14.1345    1.2116   -1.5567 H   0  0  0  0  0  0  0  0  0  0  0  0
  -15.6117    1.8698   -0.8792 H   0  0  0  0  0  0  0  0  0  0  0  0
  -14.8123    4.1330   -1.2278 H   0  0  0  0  0  0  0  0  0  0  0  0
  -13.5261    3.6371   -2.2973 H   0  0  0  0  0  0  0  0  0  0  0  0
  -13.7033    2.9517    0.6868 H   0  0  0  0  0  0  0  0  0  0  0  0
  -12.7664    4.2733    0.0124 H   0  0  0  0  0  0  0  0  0  0  0  0
  -12.2470    1.2886   -0.4316 H   0  0  0  0  0  0  0  0  0  0  0  0
  -11.3504    2.3797    0.6005 H   0  0  0  0  0  0  0  0  0  0  0  0
  -10.6335    3.7139   -1.3946 H   0  0  0  0  0  0  0  0  0  0  0  0
  -11.4974    2.5932   -2.4552 H   0  0  0  0  0  0  0  0  0  0  0  0
  -10.0887    0.7019   -1.5775 H   0  0  0  0  0  0  0  0  0  0  0  0
   -9.2135    1.8416   -0.5597 H   0  0  0  0  0  0  0  0  0  0  0  0
   -8.5285    3.1084   -2.6718 H   0  0  0  0  0  0  0  0  0  0  0  0
   -9.2926    1.8495   -3.6341 H   0  0  0  0  0  0  0  0  0  0  0  0
   -7.7285    0.1111   -2.5172 H   0  0  0  0  0  0  0  0  0  0  0  0
   -6.2337    2.7693   -2.4818 H   0  0  0  0  0  0  0  0  0  0  0  0
   -3.8708    2.1465   -4.1973 H   0  0  0  0  0  0  0  0  0  0  0  0
   -4.2037    3.6668   -3.3380 H   0  0  0  0  0  0  0  0  0  0  0  0
   -2.5750    2.9719   -3.3428 H   0  0  0  0  0  0  0  0  0  0  0  0
  -16.5628    2.5377   -6.8700 H   0  0  0  0  0  0  0  0  0  0  0  0
  -16.4044    3.9794   -5.8795 H   0  0  0  0  0  0  0  0  0  0  0  0
  -15.1445    2.7195   -5.8228 H   0  0  0  0  0  0  0  0  0  0  0  0
   -1.3904    0.8017    0.1533 H   0  0  0  0  0  0  0  0  0  0  0  0
  -19.9878    1.6452   -5.6468 H   0  0  0  0  0  0  0  0  0  0  0  0
  -20.3996    2.1767   -4.1734 H   0  0  0  0  0  0  0  0  0  0  0  0
  1  2  1  0  0  0  0
  1 35  1  0  0  0  0
  2  3  2  0  0  0  0
  2 36  1  0  0  0  0
  3 37  1  0  0  0  0
  4  3  1  0  0  0  0
  4 38  1  0  0  0  0
  5  1  2  3  0  0  0
  5  6  1  0  0  0  0
  6  4  1  0  0  0  0
  6  7  2  3  0  0  0
  7 33  1  0  0  0  0
  8  7  1  0  0  0  0
  8 39  1  0  0  0  0
  9  8  2  0  0  0  0
  9 31  1  0  0  0  0
 10  5  1  0  0  0  0
 10  9  1  0  0  0  0
 11 16  2  0  0  0  0
 11 17  1  0  0  0  0
 12 11  1  6  0  0  0
 12 20  1  0  0  0  0
 13 12  1  0  0  0  0
 13 14  1  0  0  0  0
 14 15  2  0  0  0  0
 14 32  1  0  0  0  0
 15 16  1  0  0  0  0
 15 41  1  0  0  0  0
 16 34  1  0  0  0  0
 17 18  2  0  0  0  0
 17 42  1  0  0  0  0
 18 43  1  0  0  0  0
 19 18  1  0  0  0  0
 19 44  1  0  0  0  0
 20 19  2  0  0  0  0
 20 45  1  0  0  0  0
 21 46  1  0  0  0  0
 21 47  1  0  0  0  0
 21 13  1  0  0  0  0
 22 21  1  0  0  0  0
 22 48  1  0  0  0  0
 22 49  1  0  0  0  0
 23 22  1  0  0  0  0
 23 50  1  0  0  0  0
 23 51  1  0  0  0  0
 24 23  1  0  0  0  0
 24 52  1  0  0  0  0
 24 53  1  0  0  0  0
 25 24  1  0  0  0  0
 25 54  1  0  0  0  0
 25 55  1  0  0  0  0
 26 25  1  0  0  0  0
 26 56  1  0  0  0  0
 26 57  1  0  0  0  0
 27 26  1  0  0  0  0
 27 58  1  0  0  0  0
 27 59  1  0  0  0  0
 28 27  1  0  0  0  0
 28 60  1  0  0  0  0
 28 61  1  0  0  0  0
 29 28  1  0  0  0  0
 29 30  2  0  0  0  0
 29 62  1  0  0  0  0
 30 10  1  0  0  0  0
 30 63  1  0  0  0  0
 31 64  1  0  0  0  0
 31 65  1  0  0  0  0
 31 66  1  0  0  0  0
 32 67  1  0  0  0  0
 32 68  1  0  0  0  0
 32 69  1  0  0  0  0
 33 40  1  0  0  0  0
 33 70  1  0  0  0  0
 34 71  1  0  0  0  0
 34 72  1  0  0  0  0
M  END
$$$$
